%chk=+ch4.chk
%nprocshared=4
#hf/cc-pvqz freq=(HPmodes,saveNM) geom=connectivity pop=full

Title

1 2
C          0.0000000000        0.0000000000        0.0000000000
H          0.6380357980        0.6380357980        0.6380357980
H         -0.6380357980       -0.6380357980        0.6380357980
H          0.6380357980       -0.6380357980       -0.6380357980
H         -0.6380357980        0.6380357980       -0.6380357980

 1 2 1.0 3 1.0 4 1.0 5 1.0
 2 1 1.0
 3 1 1.0
 4 1 1.0
 5 1 1.0

