%chk=+ch4.chk
%nprocshared=4
#hf/cc-pvqz freq=(HPmodes,saveNM) geom=connectivity pop=full

Title

1 2
 C          0.0000000023        0.0000000075       -0.0000000001
 H         -0.7569725960        0.7569725848        0.3775945771
 H          0.7569725819       -0.7569725932        0.3775945732
 H          0.7569725941        0.7569725888       -0.3775945794
 H         -0.7569725839       -0.7569725892       -0.3775945707

 1 2 1.0 3 1.0 4 1.0 5 1.0
 2 1 1.0
 3 1 1.0
 4 1 1.0
 5 1 1.0

