%chk=+ch4.chk
%nprocshared=4
#hf/cc-pvqz freq=(HPmodes,saveNM) geom=connectivity pop=full

Title

1 2
 C          0.0083623700       -0.0090505017       -0.0726173446
 H          0.3966299774        0.3678893126        1.0020939374
 H         -0.3775382692       -0.3871337253        1.0023653864
 H          0.6928613896       -0.7097733087       -0.5629201194
 H         -0.6760905569        0.6932668183       -0.5606683417

 1 2 1.0 3 1.0 4 1.0 5 1.0
 2 1 1.0
 3 1 1.0
 4 1 1.0
 5 1 1.0

